
% ------------- Solver Settings ------------%
SOLVER= RANS


%CHANGING TURB MODEL TO SA AND REMOVING TRANSITION MODEL 

KIND_TURB_MODEL= SA
KIND_TRANS_MODEL= LM
FREESTREAM_TURBULENCEINTENSITY= 0.01
FREESTREAM_TURB2LAMVISCRATIO= 5
%
% Mathematical problem (DIRECT, CONTINUOUS_ADJOINT)
MATH_PROBLEM= DIRECT
%
% Restart solution (NO, YES)
RESTART_SOL= NO


% ----------- COMPRESSIBLE AND INCOMPRESSIBLE FREE-STREAM DEFINITION ----------%

% Mach number (non-dimensional, based on the free-stream values)
MACH_NUMBER= 0.26

% Angle of attack (degrees)
AOA= 15


%unsure about pressure and density
% Free-stream pressure (101325.0 N/m^2 by default, only Euler flows)
FREESTREAM_PRESSURE= 101325


%FREE STREAM DENSITY
FREESTREAM_DENSITY= 1.12

% Free-stream temperature (273.15 K by default)
FREESTREAM_TEMPERATURE= 300

REYNOLDS_NUMBER= 3.0E6
REYNOLDS_LENGTH= 1.0

% -------------- COMPRESSIBLE AND INCOMPRESSIBLE FLUID CONSTANTS --------------%
%
% Ratio of specific heats (1.4 (air), only for compressible flows)
GAMMA_VALUE= 1.4
%
% Specific gas constant (287.87 J/kg*K (air), only for compressible flows)
GAS_CONSTANT= 287.87


% ---------------------- REFERENCE VALUE DEFINITION ---------------------------%
%
% Reference origin for moment computation
REF_ORIGIN_MOMENT_X = 0.25
REF_ORIGIN_MOMENT_Y = 0.00
REF_ORIGIN_MOMENT_Z = 0.00
%
% Reference length for pitching, rolling, and yawing non-dimensional moment
REF_LENGTH= 1.0
%
% Reference area for force coefficients (0 implies automatic calculation)
REF_AREA= 0
%
%unsure on which one dimensional seems to be stndard
REF_DIMENSIONALIZATION= DIMENSIONAL
%REF_DIMENSIONALIZATION= FREESTREAM_PRESS_EQ_ONE

% ----------------------- BOUNDARY CONDITION DEFINITION -----------------------%
%
%-------------------------inlet outlet far field-------------------------------%
%
% Marker of the Euler boundary (NONE = no marker)
%MARKER_HEATFLUX= (airfoil, 0.0)
%
% Marker of the far field (NONE = no marker)
%MARKER_FAR= ( farfield )


%INLET_TYPE= TOTAL_CONDITIONS


%INLET_TYPE= MASS_FLOW
%MARKER_INLET= (inlet, 0.613, 90.22,1.0, 0.0, 0.0 )

% TOTAL_CONDITION=name, temp (k), tot pressure (pa), flow x, flow y, flow z
%INLET_TYPE=TOTAL_CONDITION
%MARKER_INLET=(inlet, 300, 101325, 90.22,1,0,0
%no clue on what number to use doesn't seem to change results too much
%MARKER_OUTLET= (outlet, 3000)

%-------------------------inlet far field-------------------------------%
%
%
% Marker of the Euler boundary (NONE = no marker)
%MARKER_HEATFLUX= (airfoil, 0.0)
%
% Marker of the far field (NONE = no marker)
%MARKER_FAR= ( farfield )
%
%
%MASS_FLOW=(name, temp (k), density, velocity mag, velocity x, velocity y, velocity z)
%INLET_TYPE= MASS_FLOW
%MARKER_INLET= (inlet, 0.613, 90.22,1.0, 0.0, 0.0 )

% TOTAL_CONDITION=name, temp (k), tot pressure (pa), flow x, flow y, flow z
%INLET_TYPE=TOTAL_CONDITION
%MARKER_INLET=(inlet, 300, 101325, 90.22,0,0,0)

%----------------------------far field----------------------------------%
%
%
% Marker of the Euler boundary (NONE = no marker)
MARKER_HEATFLUX= (airfoil, 0.0)
%
% Marker of the far field (NONE = no marker)
MARKER_FAR= ( farfield )
%

% ------------------------ SURFACES IDENTIFICATION ----------------------------%
%
% Marker(s) of the surface in the surface flow solution file
MARKER_PLOTTING = ( airfoil )
%
% Marker(s) of the surface where the non-dimensional coefficients are evaluated.
MARKER_MONITORING = ( airfoil )
%
% Marker(s) of the surface where obj. func. (design problem) will be evaluated
MARKER_DESIGNING = ( airfoil )


% ------------- COMMON PARAMETERS TO DEFINE THE NUMERICAL METHOD --------------%
% Numerical method for spatial gradients (GREEN_GAUSS, WEIGHTED_LEAST_SQUARES)

%try the other aswell
NUM_METHOD_GRAD= WEIGHTED_LEAST_SQUARES
%NUM_METHOD_GRAD= GREEN_GAUSS
%
OBJECTIVE_FUNCTION= LIFT

%no clue what this does or how to optimise
% Courant-Friedrichs-Lewy condition of the finest grid
CFL_NUMBER= 1
%
% Adaptive CFL number (NO, YES)
CFL_ADAPT= NO
%
% Parameters of the adaptive CFL number (factor down, factor up, CFL min value,
%                                        CFL max value )
CFL_ADAPT_PARAM= ( 0.1, 2.0, 10.0, 1e10 )
%
% Number of total iterations
ITER= 999

 %------------------------ LINEAR SOLVER DEFINITION ---------------------------%
%
% Linear solver for implicit formulations (BCGSTAB, FGMRES)
LINEAR_SOLVER= FGMRES
%
% Preconditioner of the Krylov linear solver (JACOBI, LINELET, LU_SGS)
LINEAR_SOLVER_PREC= ILU
%
% Minimum error of the linear solver for implicit formulations
LINEAR_SOLVER_ERROR= 1E-10
%
% Max number of iterations of the linear solver for the implicit formulation
LINEAR_SOLVER_ITER= 10

% -------------------------- MULTIGRID PARAMETERS -----------------------------%
%--------------------------------TRY REMOVING----------------------------------%
% Multi-Grid Levels (0 = no multi-grid)
MGLEVEL= 3
%
% Multi-grid cycle (V_CYCLE, W_CYCLE, FULLMG_CYCLE)
MGCYCLE= W_CYCLE
%
% Multi-Grid PreSmoothing Level
MG_PRE_SMOOTH= ( 1, 2, 3, 3 )
%
% Multi-Grid PostSmoothing Level
MG_POST_SMOOTH= ( 0, 0, 0, 0 )
%
% Jacobi implicit smoothing of the correction
MG_CORRECTION_SMOOTH= ( 0, 0, 0, 0 )
%
% Damping factor for the residual restriction
MG_DAMP_RESTRICTION= 1.0
%
% Damping factor for the correction prolongation
MG_DAMP_PROLONGATION= 1.0

% -------------------- FLOW NUMERICAL METHOD DEFINITION -----------------------%
%
% Convective numerical method
%
CONV_NUM_METHOD_FLOW= JST
%
% 2nd and 4th order artificial dissipation coefficients
JST_SENSOR_COEFF= ( 0.5, 0.02 )
%
% Time discretization (RUNGE-KUTTA_EXPLICIT, EULER_IMPLICIT, EULER_EXPLICIT)
TIME_DISCRE_FLOW= EULER_IMPLICIT

% ---------------- ADJOINT-FLOW NUMERICAL METHOD DEFINITION -------------------%
%
% Convective numerical method (JST, LAX-FRIEDRICH, ROE)
CONV_NUM_METHOD_ADJFLOW= JST
%
% Reduction factor of the CFL coefficient in the adjoint problem
CFL_REDUCTION_ADJFLOW= 0.01
%
% Time discretization (RUNGE-KUTTA_EXPLICIT, EULER_IMPLICIT)
TIME_DISCRE_ADJFLOW= EULER_IMPLICIT

% ----------------------- DESIGN VARIABLE PARAMETERS --------------------------%
%
% Kind of deformation
DV_KIND= NO_DEFORMATION

% --------------------------- CONVERGENCE PARAMETERS --------------------------%
%
CONV_FIELD= LIFT
%
% Min value of the residual (log10 of the residual)
CONV_RESIDUAL_MINVAL= -4
%
% Start Cauchy criteria at iteration number
CONV_STARTITER= 10
%
% Number of elements to apply the criteria
CONV_CAUCHY_ELEMS= 100
%
% Epsilon to control the series convergence
CONV_CAUCHY_EPS= 1E-6


%----------------------------OUTPUT--------------------------------------------%
SCREEN_OUTPUT=(INNER_ITER, WALL_TIME, RMS_RES, LIFT, DRAG, CAUCHY_SENS_PRESS, CAUCHY_DRAG RMS_ADJ_DENSITY RMS_ADJ_ENERGY,MACH)

HISTORY_OUTPUT= (INNER_ITER, OUTER_ITER, RMS_RES, REL_RMS_RES, CAUCHY_SENS_PRESS, CAUCHY_DRAG, LIFT, DRAG, MACH)

HISTORY_WRT_FREQ_INNER=1
HISTORY_WRT_FREQ_OUTER=1
VOLUME_OUTPUT=(SOLUTION,PRIMITIVE)

% ------------------------- MESH --------------------------%
% ------------------------- MESH --------------------------%
% ------------------------- MESH --------------------------%
% ------------------------- MESH --------------------------%
% ------------------------- MESH --------------------------%
% ------------------------- MESH --------------------------%
% ------------------------- MESH --------------------------%

% Mesh input file
MESH_FILENAME= farfieldonly.su2
%% Mesh input file format (SU2, CGNS, NETCDF_ASCII)
MESH_FORMAT= SU2
%
% Mesh output file
MESH_OUT_FILENAME= mesh_out.su2


%--------------OUTPUT FILES---------------------------------%
% Restart flow input file
SOLUTION_FILENAME= solution_flow.dat
%
% Restart adjoint input file
SOLUTION_ADJ_FILENAME= solution_adj.dat
%
% Output file format (TECPLOT, CSV)
TABULAR_FORMAT= CSV
%
% Output file convergence history (w/o extension)
CONV_FILENAME= history
%
% Output file restart flow
RESTART_FILENAME= restart_flow.dat
%
% Output file restart adjoint
RESTART_ADJ_FILENAME= restart_adj.dat
%
% Output file flow (w/o extension) variables
VOLUME_FILENAME= flow
%
% Output file adjoint (w/o extension) variables
VOLUME_ADJ_FILENAME= adjoint
%
% Output Objective function gradient (using continuous adjoint)
GRAD_OBJFUNC_FILENAME= of_grad.dat
%
% Output file surface flow coefficient (w/o extension)
SURFACE_FILENAME= surface_flow
%
% Output file surface adjoint coefficient (w/o extension)
SURFACE_ADJ_FILENAME= surface_adjoint
%
% Writing solution file frequency
OUTPUT_WRT_FREQ= 250
%
% Output file format
OUTPUT_FILES= (RESTART, PARAVIEW, SURFACE_CSV)




